// Chapter 2 - Discrete time demonstration

module tape;
module residential;
module powerflow;
module climate;

clock {
	timezone PST+8PDT;
	starttime '2001-07-01 00:00:00';
	stoptime '2001-07-08 00:00:00';
}

object climate {
	tmyfile ""../../Shared Model Files/WA-Spokane-24157.tmy2"";
}

object triplex_meter {
	phases AS;
	nominal_voltage 120;
	object house {
		system_mode OFF;
		auxiliary_strategy DEADBAND;
		auxiliary_system_type ELECTRIC;
		heating_system_type HEAT_PUMP;
		cooling_system_type ELECTRIC;
		air_temperature 70.0;
		mass_temperature 70.0;
		heating_setpoint 65;
		cooling_setpoint 75;
		number_of_stories 1;
		window_wall_ratio 0.07;
		heating_COP 1.00;
		object recorder {
			property air_temperature;
			file "discrete_time_demo.csv";
			interval 3600;
		};
	};
}